Data/networks/opendssNetworks/network_5/Feeder_6/Loads - Copy.txt
New Load.LOAD1 Phases=1 Bus1=59.1 kV=0.23 kW=1 PF=0.95
New Load.LOAD2 Phases=1 Bus1=87.1 kV=0.23 kW=1 PF=0.95
New Load.LOAD3 Phases=1 Bus1=114.2 kV=0.23 kW=1 PF=0.95
New Load.LOAD4 Phases=1 Bus1=128.3 kV=0.23 kW=1 PF=0.95
New Load.LOAD5 Phases=1 Bus1=156.1 kV=0.23 kW=1 PF=0.95
New Load.LOAD6 Phases=1 Bus1=189.2 kV=0.23 kW=1 PF=0.95
New Load.LOAD7 Phases=1 Bus1=194.2 kV=0.23 kW=1 PF=0.95
New Load.LOAD8 Phases=1 Bus1=213.1 kV=0.23 kW=1 PF=0.95
New Load.LOAD9 Phases=1 Bus1=216.1 kV=0.23 kW=1 PF=0.95
New Load.LOAD10 Phases=1 Bus1=233.2 kV=0.23 kW=1 PF=0.95
New Load.LOAD11 Phases=1 Bus1=235.3 kV=0.23 kW=1 PF=0.95
New Load.LOAD12 Phases=1 Bus1=263.1 kV=0.23 kW=1 PF=0.95
New Load.LOAD13 Phases=1 Bus1=292.3 kV=0.23 kW=1 PF=0.95
New Load.LOAD14 Phases=1 Bus1=321.1 kV=0.23 kW=1 PF=0.95
New Load.LOAD15 Phases=1 Bus1=333.1 kV=0.23 kW=1 PF=0.95
New Load.LOAD16 Phases=1 Bus1=343.1 kV=0.23 kW=1 PF=0.95
New Load.LOAD17 Phases=1 Bus1=347.1 kV=0.23 kW=1 PF=0.95
